McPAT (version 1.0 of Aug, 2013) is computing the target processor...
 

McPAT (version 1.0 of Aug, 2013) results  (current print level is 5)
*****************************************************************************************
  Technology 45 nm
  Using Long Channel Devices When Appropriate
  Interconnect metal projection= aggressive interconnect technology projection
  Core clock Rate(MHz) 2000

*****************************************************************************************
Processor: 
  Area = 127.295 mm^2
  Peak Power = 48.2988 W
  Total Leakage = 20.039 W
  Peak Dynamic = 28.2598 W
  Subthreshold Leakage = 19.2439 W
  Subthreshold Leakage with power gating = 8.75177 W
  Gate Leakage = 0.79507 W
  Runtime Dynamic = 5.98571 W

  Total Cores: 2 cores 
  Device Type= ITRS high performance device type
    Area = 65.2164 mm^2
    Peak Dynamic = 28.2166 W
    Subthreshold Leakage = 12.4375 W
    Subthreshold Leakage with power gating = 5.16621 W
    Gate Leakage = 0.745993 W
    Runtime Dynamic = 5.97217 W

  Total L3s: 
  Device Type= ITRS high performance device type
    Area = 61.9075 mm^2
    Peak Dynamic = 0.0424096 W
    Subthreshold Leakage = 6.80085 W
    Subthreshold Leakage with power gating = 3.32364 W
    Gate Leakage = 0.0484137 W
    Runtime Dynamic = 0.013537 W

  Total NoCs (Network/Bus): 
  Device Type= ITRS high performance device type
    Area = 0.171559 mm^2
    Peak Dynamic = 0.000773643 W
    Subthreshold Leakage = 0.00551643 W
    Subthreshold Leakage with power gating = 0.00314436 W
    Gate Leakage = 0.000663012 W
    Runtime Dynamic = 0 W

*****************************************************************************************
Core:
      Area = 32.6082 mm^2
      Peak Dynamic = 11.3795 W
      Subthreshold Leakage = 6.21877 W
      Subthreshold Leakage with power gating = 2.58311 W
      Gate Leakage = 0.372997 W
      Runtime Dynamic = 1.48187 W

      Instruction Fetch Unit:
        Area = 5.86007 mm^2
        Peak Dynamic = 2.42815 W
        Subthreshold Leakage = 0.932587 W
        Subthreshold Leakage with power gating = 0.408542 W
        Gate Leakage = 0.0590479 W
        Runtime Dynamic = 0.089154 W

          Instruction Cache:
            Area = 3.14635 mm^2
            Peak Dynamic = 0.724401 W
            Subthreshold Leakage = 0.367022 W
            Subthreshold Leakage with power gating = 0.180386 W
            Gate Leakage = 0.029931 W
            Runtime Dynamic = 0.03661 W

          Branch Target Buffer:
            Area = 0.64954 mm^2
            Peak Dynamic = 0.133735 W
            Subthreshold Leakage = 0.0811682 W
            Subthreshold Leakage with power gating = 0.0435357 W
            Gate Leakage = 0.00272758 W
            Runtime Dynamic = 0.00175129 W

          Branch Predictor:
            Area = 0.138516 mm^2
            Peak Dynamic = 0.0449502 W
            Subthreshold Leakage = 0.0199703 W
            Subthreshold Leakage with power gating = 0.0103282 W
            Gate Leakage = 0.000757657 W
            Runtime Dynamic = 0.000709863 W

              Global Predictor:
                Area = 0.0435221 mm^2
                Peak Dynamic = 0.012694 W
                Subthreshold Leakage = 0.00759719 W
                Subthreshold Leakage with power gating = 0.0039236 W
                Gate Leakage = 0.000278362 W
                Runtime Dynamic = 0.000187868 W

              Local Predictor:
              L1_Local Predictor:
                Area = 0.0257064 mm^2
                Peak Dynamic = 0.0107199 W
                Subthreshold Leakage = 0.00384344 W
                Subthreshold Leakage with power gating = 0.00198631 W
                Gate Leakage = 0.000154548 W
                Runtime Dynamic = 0.000165032 W

              L2_Local Predictor:
                Area = 0.0151917 mm^2
                Peak Dynamic = 0.00396576 W
                Subthreshold Leakage = 0.00181347 W
                Subthreshold Leakage with power gating = 0.000957045 W
                Gate Leakage = 8.00196e-05 W
                Runtime Dynamic = 6.46515e-05 W

              Chooser:
                Area = 0.0435221 mm^2
                Peak Dynamic = 0.012694 W
                Subthreshold Leakage = 0.00759719 W
                Subthreshold Leakage with power gating = 0.0039236 W
                Gate Leakage = 0.000278362 W
                Runtime Dynamic = 0.000187868 W

              RAS:
                Area = 0.0105732 mm^2
                Peak Dynamic = 0.00884228 W
                Subthreshold Leakage = 0.000932505 W
                Subthreshold Leakage with power gating = 0.000494733 W
                Gate Leakage = 4.63858e-05 W
                Runtime Dynamic = 0.000169095 W

          Instruction Buffer:
            Area = 0.0226323 mm^2
            Peak Dynamic = 0.456261 W
            Subthreshold Leakage = 0.00151885 W
            Subthreshold Leakage with power gating = 0.000701682 W
            Gate Leakage = 6.83558e-05 W
            Runtime Dynamic = 0.0113884 W

          Instruction Decoder:
            Area = 1.85799 mm^2
            Peak Dynamic = 1.03311 W
            Subthreshold Leakage = 0.442943 W
            Subthreshold Leakage with power gating = 0.166104 W
            Gate Leakage = 0.0222493 W
            Runtime Dynamic = 0.0386802 W

      Renaming Unit:
        Area = 0.369768 mm^2
        Peak Dynamic = 3.42985 W
        Subthreshold Leakage = 0.070483 W
        Subthreshold Leakage with power gating = 0.0362779 W
        Gate Leakage = 0.00863632 W
        Runtime Dynamic = 0.0261546 W

          Int Front End RAT:
            Area = 0.114751 mm^2
            Peak Dynamic = 0.653722 W
            Subthreshold Leakage = 0.00611897 W
            Subthreshold Leakage with power gating = 0.00348781 W
            Gate Leakage = 0.00038343 W
            Runtime Dynamic = 0.0238809 W

          FP Front End RAT:
            Area = 0.168486 mm^2
            Peak Dynamic = 2.50761 W
            Subthreshold Leakage = 0.0437281 W
            Subthreshold Leakage with power gating = 0.024925 W
            Gate Leakage = 0.00489731 W
            Runtime Dynamic = 0 W

          Free List:
            Area = 0.0414755 mm^2
            Peak Dynamic = 0.0301747 W
            Subthreshold Leakage = 0.000670426 W
            Subthreshold Leakage with power gating = 0.000377987 W
            Gate Leakage = 4.15911e-05 W
            Runtime Dynamic = 0.00225951 W

      Load Store Unit:
        Area = 8.80969 mm^2
        Peak Dynamic = 1.58162 W
        Subthreshold Leakage = 0.591622 W
        Subthreshold Leakage with power gating = 0.283406 W
        Gate Leakage = 0.0351387 W
        Runtime Dynamic = 0.384078 W

          Data Cache:
            Area = 6.84535 mm^2
            Peak Dynamic = 1.49498 W
            Subthreshold Leakage = 0.527675 W
            Subthreshold Leakage with power gating = 0.25085 W
            Gate Leakage = 0.0279261 W
            Runtime Dynamic = 0.275674 W

          LoadQ:
            Area = 0.0836782 mm^2
            Peak Dynamic = 0.0182732 W
            Subthreshold Leakage = 0.00941961 W
            Subthreshold Leakage with power gating = 0.00536918 W
            Gate Leakage = 0.00059896 W
            Runtime Dynamic = 0.0182731 W

          StoreQ:
            Area = 0.322079 mm^2
            Peak Dynamic = 0.0450585 W
            Subthreshold Leakage = 0.0345621 W
            Subthreshold Leakage with power gating = 0.0197004 W
            Gate Leakage = 0.00329971 W
            Runtime Dynamic = 0.0901167 W

      Memory Management Unit:
        Area = 0.434579 mm^2
        Peak Dynamic = 0.191858 W
        Subthreshold Leakage = 0.0769113 W
        Subthreshold Leakage with power gating = 0.0399462 W
        Gate Leakage = 0.00813591 W
        Runtime Dynamic = 0.020691 W

          Itlb:
            Area = 0.301552 mm^2
            Peak Dynamic = 0.0450406 W
            Subthreshold Leakage = 0.0413758 W
            Subthreshold Leakage with power gating = 0.0235842 W
            Gate Leakage = 0.00393464 W
            Runtime Dynamic = 0.00458282 W

          Dtlb:
            Area = 0.0879726 mm^2
            Peak Dynamic = 0.0159914 W
            Subthreshold Leakage = 0.0155699 W
            Subthreshold Leakage with power gating = 0.00887485 W
            Gate Leakage = 0.00088729 W
            Runtime Dynamic = 0.016094 W

      Execution Unit:
        Area = 8.2042 mm^2
        Peak Dynamic = 3.7348 W
        Subthreshold Leakage = 1.83518 W
        Subthreshold Leakage with power gating = 0.709678 W
        Gate Leakage = 0.122718 W
        Runtime Dynamic = 0.959523 W

          Register Files:
            Area = 0.570804 mm^2
            Peak Dynamic = 0.0115832 W
            Subthreshold Leakage = 0.0101387 W
            Subthreshold Leakage with power gating = 0.00423643 W
            Gate Leakage = 0.000622708 W
            Runtime Dynamic = 0.0134474 W

              Integer RF:
                Area = 0.362673 mm^2
                Peak Dynamic = 0.0115832 W
                Subthreshold Leakage = 0.00614175 W
                Subthreshold Leakage with power gating = 0.00246675 W
                Gate Leakage = 0.00038992 W
                Runtime Dynamic = 0.0118466 W

              Floating Point RF:
                Area = 0.208131 mm^2
                Peak Dynamic = 0 W
                Subthreshold Leakage = 0.00399698 W
                Subthreshold Leakage with power gating = 0.00176968 W
                Gate Leakage = 0.000232788 W
                Runtime Dynamic = 0.00160082 W

          Instruction Scheduler:
            Area = 2.17927 mm^2
            Peak Dynamic = 3.64497 W
            Subthreshold Leakage = 0.114878 W
            Subthreshold Leakage with power gating = 0.0641291 W
            Gate Leakage = 0.00730101 W
            Runtime Dynamic = 0.179764 W

              Instruction Window:
                Area = 1.00996 mm^2
                Peak Dynamic = 1.56324 W
                Subthreshold Leakage = 0.0800117 W
                Subthreshold Leakage with power gating = 0.0455351 W
                Gate Leakage = 0.00529112 W
                Runtime Dynamic = 0.0765171 W

              FP Instruction Window:
                Area = 0.328073 mm^2
                Peak Dynamic = 0.909606 W
                Subthreshold Leakage = 0.017004 W
                Subthreshold Leakage with power gating = 0.00962066 W
                Gate Leakage = 0.00115349 W
                Runtime Dynamic = 0.0441877 W

              ROB:
                Area = 0.841232 mm^2
                Peak Dynamic = 1.17212 W
                Subthreshold Leakage = 0.0178624 W
                Subthreshold Leakage with power gating = 0.00897339 W
                Gate Leakage = 0.000856399 W
                Runtime Dynamic = 0.0590594 W

          Integer ALUs (Count: 6 ):
            Area = 0.47087 mm^2
            Peak Dynamic = 0.0443048 W
            Subthreshold Leakage = 0.40222 W
            Subthreshold Leakage with power gating = 0.150833 W
            Gate Leakage = 0.0265291 W
            Runtime Dynamic = 0.153913 W

          Floating Point Units (FPUs) (Count: 2 ):
            Area = 4.6585 mm^2
            Peak Dynamic = 0 W
            Subthreshold Leakage = 0.994829 W
            Subthreshold Leakage with power gating = 0.373061 W
            Gate Leakage = 0.0656156 W
            Runtime Dynamic = 0.304033 W

          Complex ALUs (Mul/Div) (Count: 1 ):
            Area = 0.235435 mm^2
            Peak Dynamic = 0 W
            Subthreshold Leakage = 0.20111 W
            Subthreshold Leakage with power gating = 0.0754163 W
            Gate Leakage = 0.0132646 W
            Runtime Dynamic = 0.202689 W

          Results Broadcast Bus:
            Area Overhead = 0.0442632 mm^2
            Peak Dynamic = 0.0279897 W
            Subthreshold Leakage = 0.0920413 W
            Subthreshold Leakage with power gating = 0.0345155 W
            Gate Leakage = 0.00607074 W
            Runtime Dynamic = 0.105663 W

    L2
    Area = 4.53318 mm^2
    Peak Dynamic = 0.0132092 W
    Subthreshold Leakage = 0.834142 W
    Subthreshold Leakage with power gating = 0.401066 W
    Gate Leakage = 0.015464 W
    Runtime Dynamic = 0.00227336 W

*****************************************************************************************
Core:
      Area = 32.6082 mm^2
      Peak Dynamic = 16.8371 W
      Subthreshold Leakage = 6.21877 W
      Subthreshold Leakage with power gating = 2.58311 W
      Gate Leakage = 0.372997 W
      Runtime Dynamic = 4.49029 W

      Instruction Fetch Unit:
        Area = 5.86007 mm^2
        Peak Dynamic = 4.95858 W
        Subthreshold Leakage = 0.932587 W
        Subthreshold Leakage with power gating = 0.408542 W
        Gate Leakage = 0.0590479 W
        Runtime Dynamic = 0.333294 W

          Instruction Cache:
            Area = 3.14635 mm^2
            Peak Dynamic = 3.136 W
            Subthreshold Leakage = 0.367022 W
            Subthreshold Leakage with power gating = 0.180386 W
            Gate Leakage = 0.029931 W
            Runtime Dynamic = 0.110867 W

          Branch Target Buffer:
            Area = 0.64954 mm^2
            Peak Dynamic = 0.133735 W
            Subthreshold Leakage = 0.0811682 W
            Subthreshold Leakage with power gating = 0.0435357 W
            Gate Leakage = 0.00272758 W
            Runtime Dynamic = 0.00378915 W

          Branch Predictor:
            Area = 0.138516 mm^2
            Peak Dynamic = 0.0449502 W
            Subthreshold Leakage = 0.0199703 W
            Subthreshold Leakage with power gating = 0.0103282 W
            Gate Leakage = 0.000757657 W
            Runtime Dynamic = 0.00187206 W

              Global Predictor:
                Area = 0.0435221 mm^2
                Peak Dynamic = 0.012694 W
                Subthreshold Leakage = 0.00759719 W
                Subthreshold Leakage with power gating = 0.0039236 W
                Gate Leakage = 0.000278362 W
                Runtime Dynamic = 0.000395689 W

              Local Predictor:
              L1_Local Predictor:
                Area = 0.0257064 mm^2
                Peak Dynamic = 0.0107199 W
                Subthreshold Leakage = 0.00384344 W
                Subthreshold Leakage with power gating = 0.00198631 W
                Gate Leakage = 0.000154548 W
                Runtime Dynamic = 0.000344776 W

              L2_Local Predictor:
                Area = 0.0151917 mm^2
                Peak Dynamic = 0.00396576 W
                Subthreshold Leakage = 0.00181347 W
                Subthreshold Leakage with power gating = 0.000957045 W
                Gate Leakage = 8.00196e-05 W
                Runtime Dynamic = 0.00013354 W

              Chooser:
                Area = 0.0435221 mm^2
                Peak Dynamic = 0.012694 W
                Subthreshold Leakage = 0.00759719 W
                Subthreshold Leakage with power gating = 0.0039236 W
                Gate Leakage = 0.000278362 W
                Runtime Dynamic = 0.000395689 W

              RAS:
                Area = 0.0105732 mm^2
                Peak Dynamic = 0.00884228 W
                Subthreshold Leakage = 0.000932505 W
                Subthreshold Leakage with power gating = 0.000494733 W
                Gate Leakage = 4.63858e-05 W
                Runtime Dynamic = 0.0007359 W

          Instruction Buffer:
            Area = 0.0226323 mm^2
            Peak Dynamic = 0.456261 W
            Subthreshold Leakage = 0.00151885 W
            Subthreshold Leakage with power gating = 0.000701682 W
            Gate Leakage = 6.83558e-05 W
            Runtime Dynamic = 0.0493015 W

          Instruction Decoder:
            Area = 1.85799 mm^2
            Peak Dynamic = 1.03311 W
            Subthreshold Leakage = 0.442943 W
            Subthreshold Leakage with power gating = 0.166104 W
            Gate Leakage = 0.0222493 W
            Runtime Dynamic = 0.16745 W

      Renaming Unit:
        Area = 0.369768 mm^2
        Peak Dynamic = 3.42985 W
        Subthreshold Leakage = 0.070483 W
        Subthreshold Leakage with power gating = 0.0362779 W
        Gate Leakage = 0.00863632 W
        Runtime Dynamic = 0.114466 W

          Int Front End RAT:
            Area = 0.114751 mm^2
            Peak Dynamic = 0.653722 W
            Subthreshold Leakage = 0.00611897 W
            Subthreshold Leakage with power gating = 0.00348781 W
            Gate Leakage = 0.00038343 W
            Runtime Dynamic = 0.10467 W

          FP Front End RAT:
            Area = 0.168486 mm^2
            Peak Dynamic = 2.50761 W
            Subthreshold Leakage = 0.0437281 W
            Subthreshold Leakage with power gating = 0.024925 W
            Gate Leakage = 0.00489731 W
            Runtime Dynamic = 0 W

          Free List:
            Area = 0.0414755 mm^2
            Peak Dynamic = 0.0301747 W
            Subthreshold Leakage = 0.000670426 W
            Subthreshold Leakage with power gating = 0.000377987 W
            Gate Leakage = 4.15911e-05 W
            Runtime Dynamic = 0.00978164 W

      Load Store Unit:
        Area = 8.80969 mm^2
        Peak Dynamic = 3.95985 W
        Subthreshold Leakage = 0.591622 W
        Subthreshold Leakage with power gating = 0.283406 W
        Gate Leakage = 0.0351387 W
        Runtime Dynamic = 1.76744 W

          Data Cache:
            Area = 6.84535 mm^2
            Peak Dynamic = 3.55691 W
            Subthreshold Leakage = 0.527675 W
            Subthreshold Leakage with power gating = 0.25085 W
            Gate Leakage = 0.0279261 W
            Runtime Dynamic = 1.26335 W

          LoadQ:
            Area = 0.0836782 mm^2
            Peak Dynamic = 0.0849815 W
            Subthreshold Leakage = 0.00941961 W
            Subthreshold Leakage with power gating = 0.00536918 W
            Gate Leakage = 0.00059896 W
            Runtime Dynamic = 0.0849816 W

          StoreQ:
            Area = 0.322079 mm^2
            Peak Dynamic = 0.20955 W
            Subthreshold Leakage = 0.0345621 W
            Subthreshold Leakage with power gating = 0.0197004 W
            Gate Leakage = 0.00329971 W
            Runtime Dynamic = 0.4191 W

      Memory Management Unit:
        Area = 0.434579 mm^2
        Peak Dynamic = 0.442728 W
        Subthreshold Leakage = 0.0769113 W
        Subthreshold Leakage with power gating = 0.0399462 W
        Gate Leakage = 0.00813591 W
        Runtime Dynamic = 0.0912494 W

          Itlb:
            Area = 0.301552 mm^2
            Peak Dynamic = 0.194985 W
            Subthreshold Leakage = 0.0413758 W
            Subthreshold Leakage with power gating = 0.0235842 W
            Gate Leakage = 0.00393464 W
            Runtime Dynamic = 0.0167762 W

          Dtlb:
            Area = 0.0879726 mm^2
            Peak Dynamic = 0.07437 W
            Subthreshold Leakage = 0.0155699 W
            Subthreshold Leakage with power gating = 0.00887485 W
            Gate Leakage = 0.00088729 W
            Runtime Dynamic = 0.074459 W

      Execution Unit:
        Area = 8.2042 mm^2
        Peak Dynamic = 4.03384 W
        Subthreshold Leakage = 1.83518 W
        Subthreshold Leakage with power gating = 0.709678 W
        Gate Leakage = 0.122718 W
        Runtime Dynamic = 2.1825 W

          Register Files:
            Area = 0.570804 mm^2
            Peak Dynamic = 0.0501455 W
            Subthreshold Leakage = 0.0101387 W
            Subthreshold Leakage with power gating = 0.00423643 W
            Gate Leakage = 0.000622708 W
            Runtime Dynamic = 0.0582184 W

              Integer RF:
                Area = 0.362673 mm^2
                Peak Dynamic = 0.0501455 W
                Subthreshold Leakage = 0.00614175 W
                Subthreshold Leakage with power gating = 0.00246675 W
                Gate Leakage = 0.00038992 W
                Runtime Dynamic = 0.0512849 W

              Floating Point RF:
                Area = 0.208131 mm^2
                Peak Dynamic = 0 W
                Subthreshold Leakage = 0.00399698 W
                Subthreshold Leakage with power gating = 0.00176968 W
                Gate Leakage = 0.000232788 W
                Runtime Dynamic = 0.00693349 W

          Instruction Scheduler:
            Area = 2.17927 mm^2
            Peak Dynamic = 3.64497 W
            Subthreshold Leakage = 0.114878 W
            Subthreshold Leakage with power gating = 0.0641291 W
            Gate Leakage = 0.00730101 W
            Runtime Dynamic = 0.785763 W

              Instruction Window:
                Area = 1.00996 mm^2
                Peak Dynamic = 1.56324 W
                Subthreshold Leakage = 0.0800117 W
                Subthreshold Leakage with power gating = 0.0455351 W
                Gate Leakage = 0.00529112 W
                Runtime Dynamic = 0.33125 W

              FP Instruction Window:
                Area = 0.328073 mm^2
                Peak Dynamic = 0.909606 W
                Subthreshold Leakage = 0.017004 W
                Subthreshold Leakage with power gating = 0.00962066 W
                Gate Leakage = 0.00115349 W
                Runtime Dynamic = 0.191293 W

              ROB:
                Area = 0.841232 mm^2
                Peak Dynamic = 1.17212 W
                Subthreshold Leakage = 0.0178624 W
                Subthreshold Leakage with power gating = 0.00897339 W
                Gate Leakage = 0.000856399 W
                Runtime Dynamic = 0.263221 W

          Integer ALUs (Count: 6 ):
            Area = 0.47087 mm^2
            Peak Dynamic = 0.191803 W
            Subthreshold Leakage = 0.40222 W
            Subthreshold Leakage with power gating = 0.150833 W
            Gate Leakage = 0.0265291 W
            Runtime Dynamic = 0.344012 W

          Floating Point Units (FPUs) (Count: 2 ):
            Area = 4.6585 mm^2
            Peak Dynamic = 0 W
            Subthreshold Leakage = 0.994829 W
            Subthreshold Leakage with power gating = 0.373061 W
            Gate Leakage = 0.0656156 W
            Runtime Dynamic = 0.304033 W

          Complex ALUs (Mul/Div) (Count: 1 ):
            Area = 0.235435 mm^2
            Peak Dynamic = 0 W
            Subthreshold Leakage = 0.20111 W
            Subthreshold Leakage with power gating = 0.0754163 W
            Gate Leakage = 0.0132646 W
            Runtime Dynamic = 0.202689 W

          Results Broadcast Bus:
            Area Overhead = 0.0442632 mm^2
            Peak Dynamic = 0.121172 W
            Subthreshold Leakage = 0.0920413 W
            Subthreshold Leakage with power gating = 0.0345155 W
            Gate Leakage = 0.00607074 W
            Runtime Dynamic = 0.487768 W

    L2
    Area = 4.53318 mm^2
    Peak Dynamic = 0.0122985 W
    Subthreshold Leakage = 0.834142 W
    Subthreshold Leakage with power gating = 0.401066 W
    Gate Leakage = 0.015464 W
    Runtime Dynamic = 0.00134451 W

*****************************************************************************************
      L3
      Area = 61.9075 mm^2
      Peak Dynamic = 0.0424096 W
      Subthreshold Leakage = 6.80085 W
      Subthreshold Leakage with power gating = 3.32364 W
      Gate Leakage = 0.0484137 W
      Runtime Dynamic = 0.013537 W

*****************************************************************************************
NOC
      Area = 0.171559 mm^2
      Peak Dynamic = 0.000773643 W
      Subthreshold Leakage = 0.00551643 W
      Subthreshold Leakage with power gating = 0.00314436 W
      Gate Leakage = 0.000663012 W
      Runtime Dynamic = 0 W

      Router: 
        Area = 0.171559 mm^2
        Peak Dynamic = 0.000773643 W
        Subthreshold Leakage = 0.00551643 W
        Subthreshold Leakage with power gating = 0.00314436 W
        Gate Leakage = 0.000663012 W
        Runtime Dynamic = 0 W

            Virtual Channel Buffer:
              Area = 0.135349 mm^2
              Peak Dynamic = 0.000589806 W
              Subthreshold Leakage = 0.00228033 W
              Subthreshold Leakage with power gating = 0.00129979 W
              Gate Leakage = 0.000219375 W
              Runtime Dynamic = 0 W

            Crossbar:
              Area = 0.00849347 mm^2
              Peak Dynamic = 0.000183233 W
              Subthreshold Leakage = 0.0032354 W
              Subthreshold Leakage with power gating = 0.00184418 W
              Gate Leakage = 0.000443567 W
              Runtime Dynamic = 0 W

            Arbiter:
              Peak Dynamic = 6.03248e-07 W
              Subthreshold Leakage = 6.93972e-07 W
              Subthreshold Leakage with power gating = 0.00184418 W
              Gate Leakage = 6.9286e-08 W
              Runtime Dynamic = 0 W

*****************************************************************************************
