McPAT (version 1.0 of Aug, 2013) is computing the target processor...
 

McPAT (version 1.0 of Aug, 2013) results  (current print level is 5)
*****************************************************************************************
  Technology 45 nm
  Using Long Channel Devices When Appropriate
  Interconnect metal projection= aggressive interconnect technology projection
  Core clock Rate(MHz) 2660

*****************************************************************************************
Processor: 
  Area = 184.575 mm^2
  Peak Power = 90.0086 W
  Total Leakage = 32.043 W
  Peak Dynamic = 57.9655 W
  Subthreshold Leakage = 30.5875 W
  Subthreshold Leakage with power gating = 13.5508 W
  Gate Leakage = 1.45551 W
  Runtime Dynamic = 13.1063 W

  Total Cores: 4 cores 
  Device Type= ITRS high performance device type
    Area = 121.362 mm^2
    Peak Dynamic = 57.8928 W
    Subthreshold Leakage = 23.7189 W
    Subthreshold Leakage with power gating = 9.85578 W
    Gate Leakage = 1.40059 W
    Runtime Dynamic = 13.0649 W

  Total L3s: 
  Device Type= ITRS high performance device type
    Area = 61.9075 mm^2
    Peak Dynamic = 0.0727305 W
    Subthreshold Leakage = 6.80085 W
    Subthreshold Leakage with power gating = 3.32364 W
    Gate Leakage = 0.0484137 W
    Runtime Dynamic = 0.0413938 W

  Total NoCs (Network/Bus): 
  Device Type= ITRS high performance device type
    Area = 1.30578 mm^2
    Peak Dynamic = 0 W
    Subthreshold Leakage = 0.0677939 W
    Subthreshold Leakage with power gating = 0.0254227 W
    Gate Leakage = 0.0065012 W
    Runtime Dynamic = 0 W

*****************************************************************************************
Core:
      Area = 32.6082 mm^2
      Peak Dynamic = 23.5172 W
      Subthreshold Leakage = 6.21877 W
      Subthreshold Leakage with power gating = 2.58311 W
      Gate Leakage = 0.372997 W
      Runtime Dynamic = 6.26312 W

      Instruction Fetch Unit:
        Area = 5.86007 mm^2
        Peak Dynamic = 7.62713 W
        Subthreshold Leakage = 0.932587 W
        Subthreshold Leakage with power gating = 0.408542 W
        Gate Leakage = 0.0590479 W
        Runtime Dynamic = 0.594606 W

          Instruction Cache:
            Area = 3.14635 mm^2
            Peak Dynamic = 5.15462 W
            Subthreshold Leakage = 0.367022 W
            Subthreshold Leakage with power gating = 0.180386 W
            Gate Leakage = 0.029931 W
            Runtime Dynamic = 0.220053 W

          Branch Target Buffer:
            Area = 0.64954 mm^2
            Peak Dynamic = 0.177867 W
            Subthreshold Leakage = 0.0811682 W
            Subthreshold Leakage with power gating = 0.0435357 W
            Gate Leakage = 0.00272758 W
            Runtime Dynamic = 0.0131121 W

          Branch Predictor:
            Area = 0.138516 mm^2
            Peak Dynamic = 0.0597838 W
            Subthreshold Leakage = 0.0199703 W
            Subthreshold Leakage with power gating = 0.0103282 W
            Gate Leakage = 0.000757657 W
            Runtime Dynamic = 0.00516678 W

              Global Predictor:
                Area = 0.0435221 mm^2
                Peak Dynamic = 0.0168831 W
                Subthreshold Leakage = 0.00759719 W
                Subthreshold Leakage with power gating = 0.0039236 W
                Gate Leakage = 0.000278362 W
                Runtime Dynamic = 0.00137699 W

              Local Predictor:
              L1_Local Predictor:
                Area = 0.0257064 mm^2
                Peak Dynamic = 0.0142575 W
                Subthreshold Leakage = 0.00384344 W
                Subthreshold Leakage with power gating = 0.00198631 W
                Gate Leakage = 0.000154548 W
                Runtime Dynamic = 0.00120189 W

              L2_Local Predictor:
                Area = 0.0151917 mm^2
                Peak Dynamic = 0.00527447 W
                Subthreshold Leakage = 0.00181347 W
                Subthreshold Leakage with power gating = 0.000957045 W
                Gate Leakage = 8.00196e-05 W
                Runtime Dynamic = 0.000466656 W

              Chooser:
                Area = 0.0435221 mm^2
                Peak Dynamic = 0.0168831 W
                Subthreshold Leakage = 0.00759719 W
                Subthreshold Leakage with power gating = 0.0039236 W
                Gate Leakage = 0.000278362 W
                Runtime Dynamic = 0.00137699 W

              RAS:
                Area = 0.0105732 mm^2
                Peak Dynamic = 0.0117602 W
                Subthreshold Leakage = 0.000932505 W
                Subthreshold Leakage with power gating = 0.000494733 W
                Gate Leakage = 4.63858e-05 W
                Runtime Dynamic = 0.0012109 W

          Instruction Buffer:
            Area = 0.0226323 mm^2
            Peak Dynamic = 0.606827 W
            Subthreshold Leakage = 0.00151885 W
            Subthreshold Leakage with power gating = 0.000701682 W
            Gate Leakage = 6.83558e-05 W
            Runtime Dynamic = 0.0810366 W

          Instruction Decoder:
            Area = 1.85799 mm^2
            Peak Dynamic = 1.37404 W
            Subthreshold Leakage = 0.442943 W
            Subthreshold Leakage with power gating = 0.166104 W
            Gate Leakage = 0.0222493 W
            Runtime Dynamic = 0.275237 W

      Renaming Unit:
        Area = 0.369768 mm^2
        Peak Dynamic = 4.56169 W
        Subthreshold Leakage = 0.070483 W
        Subthreshold Leakage with power gating = 0.0362779 W
        Gate Leakage = 0.00863632 W
        Runtime Dynamic = 0.347208 W

          Int Front End RAT:
            Area = 0.114751 mm^2
            Peak Dynamic = 0.86945 W
            Subthreshold Leakage = 0.00611897 W
            Subthreshold Leakage with power gating = 0.00348781 W
            Gate Leakage = 0.00038343 W
            Runtime Dynamic = 0.163715 W

          FP Front End RAT:
            Area = 0.168486 mm^2
            Peak Dynamic = 3.33511 W
            Subthreshold Leakage = 0.0437281 W
            Subthreshold Leakage with power gating = 0.024925 W
            Gate Leakage = 0.00489731 W
            Runtime Dynamic = 0.165423 W

          Free List:
            Area = 0.0414755 mm^2
            Peak Dynamic = 0.0401324 W
            Subthreshold Leakage = 0.000670426 W
            Subthreshold Leakage with power gating = 0.000377987 W
            Gate Leakage = 4.15911e-05 W
            Runtime Dynamic = 0.0180686 W

      Load Store Unit:
        Area = 8.80969 mm^2
        Peak Dynamic = 4.8367 W
        Subthreshold Leakage = 0.591622 W
        Subthreshold Leakage with power gating = 0.283406 W
        Gate Leakage = 0.0351387 W
        Runtime Dynamic = 2.10812 W

          Data Cache:
            Area = 6.84535 mm^2
            Peak Dynamic = 4.35797 W
            Subthreshold Leakage = 0.527675 W
            Subthreshold Leakage with power gating = 0.25085 W
            Gate Leakage = 0.0279261 W
            Runtime Dynamic = 1.50922 W

          LoadQ:
            Area = 0.0836782 mm^2
            Peak Dynamic = 0.100967 W
            Subthreshold Leakage = 0.00941961 W
            Subthreshold Leakage with power gating = 0.00536918 W
            Gate Leakage = 0.00059896 W
            Runtime Dynamic = 0.100967 W

          StoreQ:
            Area = 0.322079 mm^2
            Peak Dynamic = 0.248967 W
            Subthreshold Leakage = 0.0345621 W
            Subthreshold Leakage with power gating = 0.0197004 W
            Gate Leakage = 0.00329971 W
            Runtime Dynamic = 0.497935 W

      Memory Management Unit:
        Area = 0.434579 mm^2
        Peak Dynamic = 0.63175 W
        Subthreshold Leakage = 0.0769113 W
        Subthreshold Leakage with power gating = 0.0399462 W
        Gate Leakage = 0.00813591 W
        Runtime Dynamic = 0.123304 W

          Itlb:
            Area = 0.301552 mm^2
            Peak Dynamic = 0.320495 W
            Subthreshold Leakage = 0.0413758 W
            Subthreshold Leakage with power gating = 0.0235842 W
            Gate Leakage = 0.00393464 W
            Runtime Dynamic = 0.0347664 W

          Dtlb:
            Area = 0.0879726 mm^2
            Peak Dynamic = 0.0883593 W
            Subthreshold Leakage = 0.0155699 W
            Subthreshold Leakage with power gating = 0.00887485 W
            Gate Leakage = 0.00088729 W
            Runtime Dynamic = 0.0885373 W

      Execution Unit:
        Area = 8.2042 mm^2
        Peak Dynamic = 5.84211 W
        Subthreshold Leakage = 1.83518 W
        Subthreshold Leakage with power gating = 0.709678 W
        Gate Leakage = 0.122718 W
        Runtime Dynamic = 3.08284 W

          Register Files:
            Area = 0.570804 mm^2
            Peak Dynamic = 0.144767 W
            Subthreshold Leakage = 0.0101387 W
            Subthreshold Leakage with power gating = 0.00423643 W
            Gate Leakage = 0.000622708 W
            Runtime Dynamic = 0.0956948 W

              Integer RF:
                Area = 0.362673 mm^2
                Peak Dynamic = 0.0973511 W
                Subthreshold Leakage = 0.00614175 W
                Subthreshold Leakage with power gating = 0.00246675 W
                Gate Leakage = 0.00038992 W
                Runtime Dynamic = 0.0842967 W

              Floating Point RF:
                Area = 0.208131 mm^2
                Peak Dynamic = 0.0474159 W
                Subthreshold Leakage = 0.00399698 W
                Subthreshold Leakage with power gating = 0.00176968 W
                Gate Leakage = 0.000232788 W
                Runtime Dynamic = 0.0113982 W

          Instruction Scheduler:
            Area = 2.17927 mm^2
            Peak Dynamic = 4.84781 W
            Subthreshold Leakage = 0.114878 W
            Subthreshold Leakage with power gating = 0.0641291 W
            Gate Leakage = 0.00730101 W
            Runtime Dynamic = 1.23166 W

              Instruction Window:
                Area = 1.00996 mm^2
                Peak Dynamic = 2.07911 W
                Subthreshold Leakage = 0.0800117 W
                Subthreshold Leakage with power gating = 0.0455351 W
                Gate Leakage = 0.00529112 W
                Runtime Dynamic = 0.544473 W

              FP Instruction Window:
                Area = 0.328073 mm^2
                Peak Dynamic = 1.20978 W
                Subthreshold Leakage = 0.017004 W
                Subthreshold Leakage with power gating = 0.00962066 W
                Gate Leakage = 0.00115349 W
                Runtime Dynamic = 0.314426 W

              ROB:
                Area = 0.841232 mm^2
                Peak Dynamic = 1.55892 W
                Subthreshold Leakage = 0.0178624 W
                Subthreshold Leakage with power gating = 0.00897339 W
                Gate Leakage = 0.000856399 W
                Runtime Dynamic = 0.37276 W

          Integer ALUs (Count: 6 ):
            Area = 0.47087 mm^2
            Peak Dynamic = 0.272318 W
            Subthreshold Leakage = 0.40222 W
            Subthreshold Leakage with power gating = 0.150833 W
            Gate Leakage = 0.0265291 W
            Runtime Dynamic = 0.392037 W

          Floating Point Units (FPUs) (Count: 2 ):
            Area = 4.6585 mm^2
            Peak Dynamic = 0.250982 W
            Subthreshold Leakage = 0.994829 W
            Subthreshold Leakage with power gating = 0.373061 W
            Gate Leakage = 0.0656156 W
            Runtime Dynamic = 0.414444 W

          Complex ALUs (Mul/Div) (Count: 1 ):
            Area = 0.235435 mm^2
            Peak Dynamic = 0.0423136 W
            Subthreshold Leakage = 0.20111 W
            Subthreshold Leakage with power gating = 0.0754163 W
            Gate Leakage = 0.0132646 W
            Runtime Dynamic = 0.235923 W

          Results Broadcast Bus:
            Area Overhead = 0.0442632 mm^2
            Peak Dynamic = 0.246832 W
            Subthreshold Leakage = 0.0920413 W
            Subthreshold Leakage with power gating = 0.0345155 W
            Gate Leakage = 0.00607074 W
            Runtime Dynamic = 0.713078 W

    L2
    Area = 4.53318 mm^2
    Peak Dynamic = 0.0178126 W
    Subthreshold Leakage = 0.834142 W
    Subthreshold Leakage with power gating = 0.401066 W
    Gate Leakage = 0.015464 W
    Runtime Dynamic = 0.00704728 W

*****************************************************************************************
Core:
      Area = 32.6082 mm^2
      Peak Dynamic = 18.1159 W
      Subthreshold Leakage = 6.21877 W
      Subthreshold Leakage with power gating = 2.58311 W
      Gate Leakage = 0.372997 W
      Runtime Dynamic = 3.38246 W

      Instruction Fetch Unit:
        Area = 5.86007 mm^2
        Peak Dynamic = 4.58735 W
        Subthreshold Leakage = 0.932587 W
        Subthreshold Leakage with power gating = 0.408542 W
        Gate Leakage = 0.0590479 W
        Runtime Dynamic = 0.227939 W

          Instruction Cache:
            Area = 3.14635 mm^2
            Peak Dynamic = 2.25759 W
            Subthreshold Leakage = 0.367022 W
            Subthreshold Leakage with power gating = 0.180386 W
            Gate Leakage = 0.029931 W
            Runtime Dynamic = 0.0677115 W

          Branch Target Buffer:
            Area = 0.64954 mm^2
            Peak Dynamic = 0.177867 W
            Subthreshold Leakage = 0.0811682 W
            Subthreshold Leakage with power gating = 0.0435357 W
            Gate Leakage = 0.00272758 W
            Runtime Dynamic = 0.0028051 W

          Branch Predictor:
            Area = 0.138516 mm^2
            Peak Dynamic = 0.0597838 W
            Subthreshold Leakage = 0.0199703 W
            Subthreshold Leakage with power gating = 0.0103282 W
            Gate Leakage = 0.000757657 W
            Runtime Dynamic = 0.00138407 W

              Global Predictor:
                Area = 0.0435221 mm^2
                Peak Dynamic = 0.0168831 W
                Subthreshold Leakage = 0.00759719 W
                Subthreshold Leakage with power gating = 0.0039236 W
                Gate Leakage = 0.000278362 W
                Runtime Dynamic = 0.000296952 W

              Local Predictor:
              L1_Local Predictor:
                Area = 0.0257064 mm^2
                Peak Dynamic = 0.0142575 W
                Subthreshold Leakage = 0.00384344 W
                Subthreshold Leakage with power gating = 0.00198631 W
                Gate Leakage = 0.000154548 W
                Runtime Dynamic = 0.000259822 W

              L2_Local Predictor:
                Area = 0.0151917 mm^2
                Peak Dynamic = 0.00527447 W
                Subthreshold Leakage = 0.00181347 W
                Subthreshold Leakage with power gating = 0.000957045 W
                Gate Leakage = 8.00196e-05 W
                Runtime Dynamic = 0.000101225 W

              Chooser:
                Area = 0.0435221 mm^2
                Peak Dynamic = 0.0168831 W
                Subthreshold Leakage = 0.00759719 W
                Subthreshold Leakage with power gating = 0.0039236 W
                Gate Leakage = 0.000278362 W
                Runtime Dynamic = 0.000296952 W

              RAS:
                Area = 0.0105732 mm^2
                Peak Dynamic = 0.0117602 W
                Subthreshold Leakage = 0.000932505 W
                Subthreshold Leakage with power gating = 0.000494733 W
                Gate Leakage = 4.63858e-05 W
                Runtime Dynamic = 0.000530346 W

          Instruction Buffer:
            Area = 0.0226323 mm^2
            Peak Dynamic = 0.606827 W
            Subthreshold Leakage = 0.00151885 W
            Subthreshold Leakage with power gating = 0.000701682 W
            Gate Leakage = 6.83558e-05 W
            Runtime Dynamic = 0.0354918 W

          Instruction Decoder:
            Area = 1.85799 mm^2
            Peak Dynamic = 1.37404 W
            Subthreshold Leakage = 0.442943 W
            Subthreshold Leakage with power gating = 0.166104 W
            Gate Leakage = 0.0222493 W
            Runtime Dynamic = 0.120546 W

      Renaming Unit:
        Area = 0.369768 mm^2
        Peak Dynamic = 4.56169 W
        Subthreshold Leakage = 0.070483 W
        Subthreshold Leakage with power gating = 0.0362779 W
        Gate Leakage = 0.00863632 W
        Runtime Dynamic = 0.12459 W

          Int Front End RAT:
            Area = 0.114751 mm^2
            Peak Dynamic = 0.86945 W
            Subthreshold Leakage = 0.00611897 W
            Subthreshold Leakage with power gating = 0.00348781 W
            Gate Leakage = 0.00038343 W
            Runtime Dynamic = 0.0737579 W

          FP Front End RAT:
            Area = 0.168486 mm^2
            Peak Dynamic = 3.33511 W
            Subthreshold Leakage = 0.0437281 W
            Subthreshold Leakage with power gating = 0.024925 W
            Gate Leakage = 0.00489731 W
            Runtime Dynamic = 0.0432691 W

          Free List:
            Area = 0.0414755 mm^2
            Peak Dynamic = 0.0401324 W
            Subthreshold Leakage = 0.000670426 W
            Subthreshold Leakage with power gating = 0.000377987 W
            Gate Leakage = 4.15911e-05 W
            Runtime Dynamic = 0.00756241 W

      Load Store Unit:
        Area = 8.80969 mm^2
        Peak Dynamic = 3.35184 W
        Subthreshold Leakage = 0.591622 W
        Subthreshold Leakage with power gating = 0.283406 W
        Gate Leakage = 0.0351387 W
        Runtime Dynamic = 1.23575 W

          Data Cache:
            Area = 6.84535 mm^2
            Peak Dynamic = 3.07059 W
            Subthreshold Leakage = 0.527675 W
            Subthreshold Leakage with power gating = 0.25085 W
            Gate Leakage = 0.0279261 W
            Runtime Dynamic = 0.883902 W

          LoadQ:
            Area = 0.0836782 mm^2
            Peak Dynamic = 0.0593172 W
            Subthreshold Leakage = 0.00941961 W
            Subthreshold Leakage with power gating = 0.00536918 W
            Gate Leakage = 0.00059896 W
            Runtime Dynamic = 0.0593172 W

          StoreQ:
            Area = 0.322079 mm^2
            Peak Dynamic = 0.146266 W
            Subthreshold Leakage = 0.0345621 W
            Subthreshold Leakage with power gating = 0.0197004 W
            Gate Leakage = 0.00329971 W
            Runtime Dynamic = 0.292532 W

      Memory Management Unit:
        Area = 0.434579 mm^2
        Peak Dynamic = 0.38861 W
        Subthreshold Leakage = 0.0769113 W
        Subthreshold Leakage with power gating = 0.0399462 W
        Gate Leakage = 0.00813591 W
        Runtime Dynamic = 0.0627936 W

          Itlb:
            Area = 0.301552 mm^2
            Peak Dynamic = 0.140369 W
            Subthreshold Leakage = 0.0413758 W
            Subthreshold Leakage with power gating = 0.0235842 W
            Gate Leakage = 0.00393464 W
            Runtime Dynamic = 0.010783 W

          Dtlb:
            Area = 0.0879726 mm^2
            Peak Dynamic = 0.0519103 W
            Subthreshold Leakage = 0.0155699 W
            Subthreshold Leakage with power gating = 0.00887485 W
            Gate Leakage = 0.00088729 W
            Runtime Dynamic = 0.0520102 W

      Execution Unit:
        Area = 8.2042 mm^2
        Peak Dynamic = 5.21834 W
        Subthreshold Leakage = 1.83518 W
        Subthreshold Leakage with power gating = 0.709678 W
        Gate Leakage = 0.122718 W
        Runtime Dynamic = 1.72931 W

          Register Files:
            Area = 0.570804 mm^2
            Peak Dynamic = 0.0521344 W
            Subthreshold Leakage = 0.0101387 W
            Subthreshold Leakage with power gating = 0.00423643 W
            Gate Leakage = 0.000622708 W
            Runtime Dynamic = 0.0419117 W

              Integer RF:
                Area = 0.362673 mm^2
                Peak Dynamic = 0.0397318 W
                Subthreshold Leakage = 0.00614175 W
                Subthreshold Leakage with power gating = 0.00246675 W
                Gate Leakage = 0.00038992 W
                Runtime Dynamic = 0.0369196 W

              Floating Point RF:
                Area = 0.208131 mm^2
                Peak Dynamic = 0.0124026 W
                Subthreshold Leakage = 0.00399698 W
                Subthreshold Leakage with power gating = 0.00176968 W
                Gate Leakage = 0.000232788 W
                Runtime Dynamic = 0.00499207 W

          Instruction Scheduler:
            Area = 2.17927 mm^2
            Peak Dynamic = 4.84781 W
            Subthreshold Leakage = 0.114878 W
            Subthreshold Leakage with power gating = 0.0641291 W
            Gate Leakage = 0.00730101 W
            Runtime Dynamic = 0.551899 W

              Instruction Window:
                Area = 1.00996 mm^2
                Peak Dynamic = 2.07911 W
                Subthreshold Leakage = 0.0800117 W
                Subthreshold Leakage with power gating = 0.0455351 W
                Gate Leakage = 0.00529112 W
                Runtime Dynamic = 0.238464 W

              FP Instruction Window:
                Area = 0.328073 mm^2
                Peak Dynamic = 1.20978 W
                Subthreshold Leakage = 0.017004 W
                Subthreshold Leakage with power gating = 0.00962066 W
                Gate Leakage = 0.00115349 W
                Runtime Dynamic = 0.13771 W

              ROB:
                Area = 0.841232 mm^2
                Peak Dynamic = 1.55892 W
                Subthreshold Leakage = 0.0178624 W
                Subthreshold Leakage with power gating = 0.00897339 W
                Gate Leakage = 0.000856399 W
                Runtime Dynamic = 0.175724 W

          Integer ALUs (Count: 6 ):
            Area = 0.47087 mm^2
            Peak Dynamic = 0.126056 W
            Subthreshold Leakage = 0.40222 W
            Subthreshold Leakage with power gating = 0.150833 W
            Gate Leakage = 0.0265291 W
            Runtime Dynamic = 0.253146 W

          Floating Point Units (FPUs) (Count: 2 ):
            Area = 4.6585 mm^2
            Peak Dynamic = 0.0656494 W
            Subthreshold Leakage = 0.994829 W
            Subthreshold Leakage with power gating = 0.373061 W
            Gate Leakage = 0.0656156 W
            Runtime Dynamic = 0.332913 W

          Complex ALUs (Mul/Div) (Count: 1 ):
            Area = 0.235435 mm^2
            Peak Dynamic = 0.0106098 W
            Subthreshold Leakage = 0.20111 W
            Subthreshold Leakage with power gating = 0.0754163 W
            Gate Leakage = 0.0132646 W
            Runtime Dynamic = 0.211022 W

          Results Broadcast Bus:
            Area Overhead = 0.0442632 mm^2
            Peak Dynamic = 0.098915 W
            Subthreshold Leakage = 0.0920413 W
            Subthreshold Leakage with power gating = 0.0345155 W
            Gate Leakage = 0.00607074 W
            Runtime Dynamic = 0.338418 W

    L2
    Area = 4.53318 mm^2
    Peak Dynamic = 0.00810726 W
    Subthreshold Leakage = 0.834142 W
    Subthreshold Leakage with power gating = 0.401066 W
    Gate Leakage = 0.015464 W
    Runtime Dynamic = 0.00207271 W

*****************************************************************************************
Core:
      Area = 28.0726 mm^2
      Peak Dynamic = 8.18547 W
      Subthreshold Leakage = 5.64067 W
      Subthreshold Leakage with power gating = 2.34478 W
      Gate Leakage = 0.3273 W
      Runtime Dynamic = 1.73218 W

      Instruction Fetch Unit:
        Area = 4.41203 mm^2
        Peak Dynamic = 1.83801 W
        Subthreshold Leakage = 0.916467 W
        Subthreshold Leakage with power gating = 0.402391 W
        Gate Leakage = 0.0565338 W
        Runtime Dynamic = 0.10923 W

          Instruction Cache:
            Area = 3.14635 mm^2
            Peak Dynamic = 1.23299 W
            Subthreshold Leakage = 0.367022 W
            Subthreshold Leakage with power gating = 0.180386 W
            Gate Leakage = 0.029931 W
            Runtime Dynamic = 0.0393254 W

          Branch Target Buffer:
            Area = 0.64954 mm^2
            Peak Dynamic = 0.177867 W
            Subthreshold Leakage = 0.0811682 W
            Subthreshold Leakage with power gating = 0.0435357 W
            Gate Leakage = 0.00272758 W
            Runtime Dynamic = 0.00168413 W

          Branch Predictor:
            Area = 0.138516 mm^2
            Peak Dynamic = 0.0597838 W
            Subthreshold Leakage = 0.0199703 W
            Subthreshold Leakage with power gating = 0.0103282 W
            Gate Leakage = 0.000757657 W
            Runtime Dynamic = 0.000805484 W

              Global Predictor:
                Area = 0.0435221 mm^2
                Peak Dynamic = 0.0168831 W
                Subthreshold Leakage = 0.00759719 W
                Subthreshold Leakage with power gating = 0.0039236 W
                Gate Leakage = 0.000278362 W
                Runtime Dynamic = 0.000179329 W

              Local Predictor:
              L1_Local Predictor:
                Area = 0.0257064 mm^2
                Peak Dynamic = 0.0142575 W
                Subthreshold Leakage = 0.00384344 W
                Subthreshold Leakage with power gating = 0.00198631 W
                Gate Leakage = 0.000154548 W
                Runtime Dynamic = 0.000157182 W

              L2_Local Predictor:
                Area = 0.0151917 mm^2
                Peak Dynamic = 0.00527447 W
                Subthreshold Leakage = 0.00181347 W
                Subthreshold Leakage with power gating = 0.000957045 W
                Gate Leakage = 8.00196e-05 W
                Runtime Dynamic = 6.13876e-05 W

              Chooser:
                Area = 0.0435221 mm^2
                Peak Dynamic = 0.0168831 W
                Subthreshold Leakage = 0.00759719 W
                Subthreshold Leakage with power gating = 0.0039236 W
                Gate Leakage = 0.000278362 W
                Runtime Dynamic = 0.000179329 W

              RAS:
                Area = 0.0105732 mm^2
                Peak Dynamic = 0.0117602 W
                Subthreshold Leakage = 0.000932505 W
                Subthreshold Leakage with power gating = 0.000494733 W
                Gate Leakage = 4.63858e-05 W
                Runtime Dynamic = 0.000289644 W

          Instruction Buffer:
            Area = 0.0015406 mm^2
            Peak Dynamic = 0.00823559 W
            Subthreshold Leakage = 0.000228727 W
            Subthreshold Leakage with power gating = 0.000111376 W
            Gate Leakage = 1.59297e-05 W
            Runtime Dynamic = 0.00157843 W

          Instruction Decoder:
            Area = 0.464496 mm^2
            Peak Dynamic = 0.343509 W
            Subthreshold Leakage = 0.442943 W
            Subthreshold Leakage with power gating = 0.166104 W
            Gate Leakage = 0.0222493 W
            Runtime Dynamic = 0.0658368 W

      Renaming Unit:
        Area = 0.161594 mm^2
        Peak Dynamic = 2.44289 W
        Subthreshold Leakage = 0.0378352 W
        Subthreshold Leakage with power gating = 0.0205468 W
        Gate Leakage = 0.00450896 W
        Runtime Dynamic = 0.0249593 W

          Int Front End RAT:
            Area = 0.015691 mm^2
            Peak Dynamic = 0.0500528 W
            Subthreshold Leakage = 0.00163214 W
            Subthreshold Leakage with power gating = 0.000930321 W
            Gate Leakage = 0.000127519 W
            Runtime Dynamic = 0.0088409 W

          FP Front End RAT:
            Area = 0.131045 mm^2
            Peak Dynamic = 2.30757 W
            Subthreshold Leakage = 0.0308571 W
            Subthreshold Leakage with power gating = 0.0175885 W
            Gate Leakage = 0.00351123 W
            Runtime Dynamic = 0.0145914 W

          Free List:
            Area = 0.00327044 mm^2
            Peak Dynamic = 0.00373688 W
            Subthreshold Leakage = 0.000211006 W
            Subthreshold Leakage with power gating = 0.000102312 W
            Gate Leakage = 1.78645e-05 W
            Runtime Dynamic = 0.00152693 W

      Load Store Unit:
        Area = 8.77622 mm^2
        Peak Dynamic = 2.36735 W
        Subthreshold Leakage = 0.576792 W
        Subthreshold Leakage with power gating = 0.277845 W
        Gate Leakage = 0.0326771 W
        Runtime Dynamic = 0.679739 W

          Data Cache:
            Area = 6.84535 mm^2
            Peak Dynamic = 2.24379 W
            Subthreshold Leakage = 0.527675 W
            Subthreshold Leakage with power gating = 0.25085 W
            Gate Leakage = 0.0279261 W
            Runtime Dynamic = 0.486557 W

          LoadQ:
            Area = 0.0836782 mm^2
            Peak Dynamic = 0.0325681 W
            Subthreshold Leakage = 0.00941961 W
            Subthreshold Leakage with power gating = 0.00536918 W
            Gate Leakage = 0.00059896 W
            Runtime Dynamic = 0.032568 W

          StoreQ:
            Area = 0.322079 mm^2
            Peak Dynamic = 0.0803074 W
            Subthreshold Leakage = 0.0345621 W
            Subthreshold Leakage with power gating = 0.0197004 W
            Gate Leakage = 0.00329971 W
            Runtime Dynamic = 0.160614 W

      Memory Management Unit:
        Area = 0.401112 mm^2
        Peak Dynamic = 0.151271 W
        Subthreshold Leakage = 0.0620808 W
        Subthreshold Leakage with power gating = 0.0343847 W
        Gate Leakage = 0.00567427 W
        Runtime Dynamic = 0.0346143 W

          Itlb:
            Area = 0.301552 mm^2
            Peak Dynamic = 0.0766626 W
            Subthreshold Leakage = 0.0413758 W
            Subthreshold Leakage with power gating = 0.0235842 W
            Gate Leakage = 0.00393464 W
            Runtime Dynamic = 0.00603744 W

          Dtlb:
            Area = 0.0879726 mm^2
            Peak Dynamic = 0.0285014 W
            Subthreshold Leakage = 0.0155699 W
            Subthreshold Leakage with power gating = 0.00887485 W
            Gate Leakage = 0.00088729 W
            Runtime Dynamic = 0.0285768 W

      Execution Unit:
        Area = 5.39176 mm^2
        Peak Dynamic = 1.37904 W
        Subthreshold Leakage = 1.33551 W
        Subthreshold Leakage with power gating = 0.504358 W
        Gate Leakage = 0.0885859 W
        Runtime Dynamic = 0.881785 W

          Register Files:
            Area = 0.0522536 mm^2
            Peak Dynamic = 0.00934176 W
            Subthreshold Leakage = 0.00176873 W
            Subthreshold Leakage with power gating = 0.000821028 W
            Gate Leakage = 9.6217e-05 W
            Runtime Dynamic = 0.00737881 W

              Integer RF:
                Area = 0.0233718 mm^2
                Peak Dynamic = 0.00865544 W
                Subthreshold Leakage = 0.000709081 W
                Subthreshold Leakage with power gating = 0.000314572 W
                Gate Leakage = 4.0781e-05 W
                Runtime Dynamic = 0.00614064 W

              Floating Point RF:
                Area = 0.0288818 mm^2
                Peak Dynamic = 0.000686319 W
                Subthreshold Leakage = 0.00105965 W
                Subthreshold Leakage with power gating = 0.000506457 W
                Gate Leakage = 5.5436e-05 W
                Runtime Dynamic = 0.00123817 W

          Instruction Scheduler:
            Area = 0.334494 mm^2
            Peak Dynamic = 1.15444 W
            Subthreshold Leakage = 0.0179572 W
            Subthreshold Leakage with power gating = 0.0101168 W
            Gate Leakage = 0.00119115 W
            Runtime Dynamic = 0.106174 W

              Instruction Window:
                Area = 0.0316416 mm^2
                Peak Dynamic = 0.0987917 W
                Subthreshold Leakage = 0.00305192 W
                Subthreshold Leakage with power gating = 0.00172766 W
                Gate Leakage = 0.000207639 W
                Runtime Dynamic = 0.0255209 W

              FP Instruction Window:
                Area = 0.275653 mm^2
                Peak Dynamic = 0.980712 W
                Subthreshold Leakage = 0.0140392 W
                Subthreshold Leakage with power gating = 0.00799042 W
                Gate Leakage = 0.000940664 W
                Runtime Dynamic = 0.0620738 W

              ROB:
                Area = 0.0271995 mm^2
                Peak Dynamic = 0.0749403 W
                Subthreshold Leakage = 0.000866079 W
                Subthreshold Leakage with power gating = 0.0003987 W
                Gate Leakage = 4.28427e-05 W
                Runtime Dynamic = 0.0185798 W

          Integer ALUs (Count: 1 ):
            Area = 0.0784784 mm^2
            Peak Dynamic = 0.0845559 W
            Subthreshold Leakage = 0.0670367 W
            Subthreshold Leakage with power gating = 0.0251388 W
            Gate Leakage = 0.00442152 W
            Runtime Dynamic = 0.185121 W

          Floating Point Units (FPUs) (Count: 2 ):
            Area = 4.6585 mm^2
            Peak Dynamic = 0.0319974 W
            Subthreshold Leakage = 0.994829 W
            Subthreshold Leakage with power gating = 0.373061 W
            Gate Leakage = 0.0656156 W
            Runtime Dynamic = 0.318109 W

          Complex ALUs (Mul/Div) (Count: 1 ):
            Area = 0.235435 mm^2
            Peak Dynamic = 0.00538284 W
            Subthreshold Leakage = 0.20111 W
            Subthreshold Leakage with power gating = 0.0754163 W
            Gate Leakage = 0.0132646 W
            Runtime Dynamic = 0.206917 W

          Results Broadcast Bus:
            Area Overhead = 0.0210117 mm^2
            Peak Dynamic = 0.0787195 W
            Subthreshold Leakage = 0.0476759 W
            Subthreshold Leakage with power gating = 0.0178785 W
            Gate Leakage = 0.00314454 W
            Runtime Dynamic = 0.0580856 W

    L2
    Area = 4.53318 mm^2
    Peak Dynamic = 0.00691127 W
    Subthreshold Leakage = 0.834142 W
    Subthreshold Leakage with power gating = 0.401066 W
    Gate Leakage = 0.015464 W
    Runtime Dynamic = 0.00185591 W

*****************************************************************************************
Core:
      Area = 28.0726 mm^2
      Peak Dynamic = 8.0742 W
      Subthreshold Leakage = 5.64067 W
      Subthreshold Leakage with power gating = 2.34478 W
      Gate Leakage = 0.3273 W
      Runtime Dynamic = 1.68712 W

      Instruction Fetch Unit:
        Area = 4.41203 mm^2
        Peak Dynamic = 1.78407 W
        Subthreshold Leakage = 0.916467 W
        Subthreshold Leakage with power gating = 0.402391 W
        Gate Leakage = 0.0565338 W
        Runtime Dynamic = 0.104121 W

          Instruction Cache:
            Area = 3.14635 mm^2
            Peak Dynamic = 1.17973 W
            Subthreshold Leakage = 0.367022 W
            Subthreshold Leakage with power gating = 0.180386 W
            Gate Leakage = 0.029931 W
            Runtime Dynamic = 0.0372291 W

          Branch Target Buffer:
            Area = 0.64954 mm^2
            Peak Dynamic = 0.177867 W
            Subthreshold Leakage = 0.0811682 W
            Subthreshold Leakage with power gating = 0.0435357 W
            Gate Leakage = 0.00272758 W
            Runtime Dynamic = 0.0016196 W

          Branch Predictor:
            Area = 0.138516 mm^2
            Peak Dynamic = 0.0597838 W
            Subthreshold Leakage = 0.0199703 W
            Subthreshold Leakage with power gating = 0.0103282 W
            Gate Leakage = 0.000757657 W
            Runtime Dynamic = 0.000769091 W

              Global Predictor:
                Area = 0.0435221 mm^2
                Peak Dynamic = 0.0168831 W
                Subthreshold Leakage = 0.00759719 W
                Subthreshold Leakage with power gating = 0.0039236 W
                Gate Leakage = 0.000278362 W
                Runtime Dynamic = 0.000171152 W

              Local Predictor:
              L1_Local Predictor:
                Area = 0.0257064 mm^2
                Peak Dynamic = 0.0142575 W
                Subthreshold Leakage = 0.00384344 W
                Subthreshold Leakage with power gating = 0.00198631 W
                Gate Leakage = 0.000154548 W
                Runtime Dynamic = 0.000149672 W

              L2_Local Predictor:
                Area = 0.0151917 mm^2
                Peak Dynamic = 0.00527447 W
                Subthreshold Leakage = 0.00181347 W
                Subthreshold Leakage with power gating = 0.000957045 W
                Gate Leakage = 8.00196e-05 W
                Runtime Dynamic = 5.82678e-05 W

              Chooser:
                Area = 0.0435221 mm^2
                Peak Dynamic = 0.0168831 W
                Subthreshold Leakage = 0.00759719 W
                Subthreshold Leakage with power gating = 0.0039236 W
                Gate Leakage = 0.000278362 W
                Runtime Dynamic = 0.000171152 W

              RAS:
                Area = 0.0105732 mm^2
                Peak Dynamic = 0.0117602 W
                Subthreshold Leakage = 0.000932505 W
                Subthreshold Leakage with power gating = 0.000494733 W
                Gate Leakage = 4.63858e-05 W
                Runtime Dynamic = 0.000277115 W

          Instruction Buffer:
            Area = 0.0015406 mm^2
            Peak Dynamic = 0.00823559 W
            Subthreshold Leakage = 0.000228727 W
            Subthreshold Leakage with power gating = 0.000111376 W
            Gate Leakage = 1.59297e-05 W
            Runtime Dynamic = 0.00151025 W

          Instruction Decoder:
            Area = 0.464496 mm^2
            Peak Dynamic = 0.343509 W
            Subthreshold Leakage = 0.442943 W
            Subthreshold Leakage with power gating = 0.166104 W
            Gate Leakage = 0.0222493 W
            Runtime Dynamic = 0.0629929 W

      Renaming Unit:
        Area = 0.161594 mm^2
        Peak Dynamic = 2.44289 W
        Subthreshold Leakage = 0.0378352 W
        Subthreshold Leakage with power gating = 0.0205468 W
        Gate Leakage = 0.00450896 W
        Runtime Dynamic = 0.0235961 W

          Int Front End RAT:
            Area = 0.015691 mm^2
            Peak Dynamic = 0.0500528 W
            Subthreshold Leakage = 0.00163214 W
            Subthreshold Leakage with power gating = 0.000930321 W
            Gate Leakage = 0.000127519 W
            Runtime Dynamic = 0.00846599 W

          FP Front End RAT:
            Area = 0.131045 mm^2
            Peak Dynamic = 2.30757 W
            Subthreshold Leakage = 0.0308571 W
            Subthreshold Leakage with power gating = 0.0175885 W
            Gate Leakage = 0.00351123 W
            Runtime Dynamic = 0.013671 W

          Free List:
            Area = 0.00327044 mm^2
            Peak Dynamic = 0.00373688 W
            Subthreshold Leakage = 0.000211006 W
            Subthreshold Leakage with power gating = 0.000102312 W
            Gate Leakage = 1.78645e-05 W
            Runtime Dynamic = 0.0014591 W

      Load Store Unit:
        Area = 8.77622 mm^2
        Peak Dynamic = 2.32643 W
        Subthreshold Leakage = 0.576792 W
        Subthreshold Leakage with power gating = 0.277845 W
        Gate Leakage = 0.0326771 W
        Runtime Dynamic = 0.654602 W

          Data Cache:
            Area = 6.84535 mm^2
            Peak Dynamic = 2.20734 W
            Subthreshold Leakage = 0.527675 W
            Subthreshold Leakage with power gating = 0.25085 W
            Gate Leakage = 0.0279261 W
            Runtime Dynamic = 0.468413 W

          LoadQ:
            Area = 0.0836782 mm^2
            Peak Dynamic = 0.0313889 W
            Subthreshold Leakage = 0.00941961 W
            Subthreshold Leakage with power gating = 0.00536918 W
            Gate Leakage = 0.00059896 W
            Runtime Dynamic = 0.031389 W

          StoreQ:
            Area = 0.322079 mm^2
            Peak Dynamic = 0.0773998 W
            Subthreshold Leakage = 0.0345621 W
            Subthreshold Leakage with power gating = 0.0197004 W
            Gate Leakage = 0.00329971 W
            Runtime Dynamic = 0.1548 W

      Memory Management Unit:
        Area = 0.401112 mm^2
        Peak Dynamic = 0.146734 W
        Subthreshold Leakage = 0.0620808 W
        Subthreshold Leakage with power gating = 0.0343847 W
        Gate Leakage = 0.00567427 W
        Runtime Dynamic = 0.0333401 W

          Itlb:
            Area = 0.301552 mm^2
            Peak Dynamic = 0.073351 W
            Subthreshold Leakage = 0.0413758 W
            Subthreshold Leakage with power gating = 0.0235842 W
            Gate Leakage = 0.00393464 W
            Runtime Dynamic = 0.00581226 W

          Dtlb:
            Area = 0.0879726 mm^2
            Peak Dynamic = 0.0274694 W
            Subthreshold Leakage = 0.0155699 W
            Subthreshold Leakage with power gating = 0.00887485 W
            Gate Leakage = 0.00088729 W
            Runtime Dynamic = 0.0275278 W

      Execution Unit:
        Area = 5.39176 mm^2
        Peak Dynamic = 1.36886 W
        Subthreshold Leakage = 1.33551 W
        Subthreshold Leakage with power gating = 0.504358 W
        Gate Leakage = 0.0885859 W
        Runtime Dynamic = 0.86989 W

          Register Files:
            Area = 0.0522536 mm^2
            Peak Dynamic = 0.00893414 W
            Subthreshold Leakage = 0.00176873 W
            Subthreshold Leakage with power gating = 0.000821028 W
            Gate Leakage = 9.6217e-05 W
            Runtime Dynamic = 0.00706008 W

              Integer RF:
                Area = 0.0233718 mm^2
                Peak Dynamic = 0.00829112 W
                Subthreshold Leakage = 0.000709081 W
                Subthreshold Leakage with power gating = 0.000314572 W
                Gate Leakage = 4.0781e-05 W
                Runtime Dynamic = 0.00587538 W

              Floating Point RF:
                Area = 0.0288818 mm^2
                Peak Dynamic = 0.000643014 W
                Subthreshold Leakage = 0.00105965 W
                Subthreshold Leakage with power gating = 0.000506457 W
                Gate Leakage = 5.5436e-05 W
                Runtime Dynamic = 0.0011847 W

          Instruction Scheduler:
            Area = 0.334494 mm^2
            Peak Dynamic = 1.15444 W
            Subthreshold Leakage = 0.0179572 W
            Subthreshold Leakage with power gating = 0.0101168 W
            Gate Leakage = 0.00119115 W
            Runtime Dynamic = 0.101624 W

              Instruction Window:
                Area = 0.0316416 mm^2
                Peak Dynamic = 0.0987917 W
                Subthreshold Leakage = 0.00305192 W
                Subthreshold Leakage with power gating = 0.00172766 W
                Gate Leakage = 0.000207639 W
                Runtime Dynamic = 0.0244185 W

              FP Instruction Window:
                Area = 0.275653 mm^2
                Peak Dynamic = 0.980712 W
                Subthreshold Leakage = 0.0140392 W
                Subthreshold Leakage with power gating = 0.00799042 W
                Gate Leakage = 0.000940664 W
                Runtime Dynamic = 0.0593924 W

              ROB:
                Area = 0.0271995 mm^2
                Peak Dynamic = 0.0749403 W
                Subthreshold Leakage = 0.000866079 W
                Subthreshold Leakage with power gating = 0.0003987 W
                Gate Leakage = 4.28427e-05 W
                Runtime Dynamic = 0.0178135 W

          Integer ALUs (Count: 1 ):
            Area = 0.0784784 mm^2
            Peak Dynamic = 0.0810223 W
            Subthreshold Leakage = 0.0670367 W
            Subthreshold Leakage with power gating = 0.0251388 W
            Gate Leakage = 0.00442152 W
            Runtime Dynamic = 0.181758 W

          Floating Point Units (FPUs) (Count: 2 ):
            Area = 4.6585 mm^2
            Peak Dynamic = 0.0299784 W
            Subthreshold Leakage = 0.994829 W
            Subthreshold Leakage with power gating = 0.373061 W
            Gate Leakage = 0.0656156 W
            Runtime Dynamic = 0.317221 W

          Complex ALUs (Mul/Div) (Count: 1 ):
            Area = 0.235435 mm^2
            Peak Dynamic = 0.00510038 W
            Subthreshold Leakage = 0.20111 W
            Subthreshold Leakage with power gating = 0.0754163 W
            Gate Leakage = 0.0132646 W
            Runtime Dynamic = 0.206695 W

          Results Broadcast Bus:
            Area Overhead = 0.0210117 mm^2
            Peak Dynamic = 0.0753969 W
            Subthreshold Leakage = 0.0476759 W
            Subthreshold Leakage with power gating = 0.0178785 W
            Gate Leakage = 0.00314454 W
            Runtime Dynamic = 0.0555321 W

    L2
    Area = 4.53318 mm^2
    Peak Dynamic = 0.00521653 W
    Subthreshold Leakage = 0.834142 W
    Subthreshold Leakage with power gating = 0.401066 W
    Gate Leakage = 0.015464 W
    Runtime Dynamic = 0.00156731 W

*****************************************************************************************
      L3
      Area = 61.9075 mm^2
      Peak Dynamic = 0.0727305 W
      Subthreshold Leakage = 6.80085 W
      Subthreshold Leakage with power gating = 3.32364 W
      Gate Leakage = 0.0484137 W
      Runtime Dynamic = 0.0413938 W

*****************************************************************************************
BUSES
      Area = 1.30578 mm^2
      Peak Dynamic = 0 W
      Subthreshold Leakage = 0.0677939 W
      Subthreshold Leakage with power gating = 0.0254227 W
      Gate Leakage = 0.0065012 W
      Runtime Dynamic = 0 W

      Bus: 
        Area = 1.30578 mm^2
        Peak Dynamic = 0 W
        Subthreshold Leakage = 0.0677939 W
        Subthreshold Leakage with power gating = 0.0254227 W
        Gate Leakage = 0.0065012 W
        Runtime Dynamic = 0 W

*****************************************************************************************
